# CIF file generated by openbabel 2.4.90, see http://openbabel.sf.net
data_I
_chemical_name_common ''
_cell_length_a 21.7628
_cell_length_b 15.2203
_cell_length_c 6.98265
_cell_angle_alpha 90
_cell_angle_beta 97.367
_cell_angle_gamma 90
_space_group_name_H-M_alt 'P 1'
_space_group_name_Hall 'P 1'
loop_
    _symmetry_equiv_pos_as_xyz
    x,y,z
loop_
    _atom_site_label
    _atom_site_type_symbol
    _atom_site_fract_x
    _atom_site_fract_y
    _atom_site_fract_z
    _atom_site_occupancy
    Co      Co   0.00000   0.51922   0.25000   1.000
    C1      C    0.39388   0.89219   0.14923   1.000
    C2      C    0.40068   0.84519   0.85467   1.000
    C3      C    0.36647   0.84032   0.00421   1.000
    C4      C    0.30865   0.78709   0.00844   1.000
    C5      C    0.21800   0.75400   0.15974   1.000
    C6      C    0.27665   0.79110   0.16818   1.000
    N1      N    0.44503   0.92912   0.08932   1.000
    N2      N    0.44924   0.90007   0.90727   1.000
    H1      H    0.37977   0.90108   0.27100   1.000
    H2      H    0.39216   0.81547   0.73456   1.000
    H5      H    0.19613   0.75674   0.26892   1.000
    H6      H    0.29486   0.81919   0.28313   1.000
    Co      Co   0.00000   0.48078   0.75000   1.000
    Co      Co   0.50000   0.01922   0.25000   1.000
    Co      Co   0.50000   0.98078   0.75000   1.000
    C1      C    0.60612   0.89219   0.35077   1.000
    C1      C    0.60612   0.10781   0.85077   1.000
    C1      C    0.39388   0.10781   0.64923   1.000
    C1      C    0.89388   0.39219   0.14923   1.000
    C1      C    0.10612   0.39219   0.35077   1.000
    C1      C    0.10612   0.60781   0.85077   1.000
    C1      C    0.89388   0.60781   0.64923   1.000
    C2      C    0.59932   0.84519   0.64533   1.000
    C2      C    0.59932   0.15481   0.14533   1.000
    C2      C    0.40068   0.15481   0.35467   1.000
    C2      C    0.90068   0.34519   0.85467   1.000
    C2      C    0.09932   0.34519   0.64533   1.000
    C2      C    0.09932   0.65481   0.14533   1.000
    C2      C    0.90068   0.65481   0.35467   1.000
    C3      C    0.63353   0.84032   0.49579   1.000
    C3      C    0.63353   0.15968   0.99579   1.000
    C3      C    0.36647   0.15968   0.50421   1.000
    C3      C    0.86647   0.34032   0.00421   1.000
    C3      C    0.13353   0.34032   0.49579   1.000
    C3      C    0.13353   0.65968   0.99579   1.000
    C3      C    0.86647   0.65968   0.50421   1.000
    C4      C    0.69135   0.78709   0.49156   1.000
    C4      C    0.69135   0.21291   0.99156   1.000
    C4      C    0.30865   0.21291   0.50844   1.000
    C4      C    0.80865   0.28709   0.00844   1.000
    C4      C    0.19135   0.28709   0.49156   1.000
    C4      C    0.19135   0.71291   0.99156   1.000
    C4      C    0.80865   0.71291   0.50844   1.000
    C5      C    0.78200   0.75400   0.34026   1.000
    C5      C    0.78200   0.24600   0.84026   1.000
    C5      C    0.21800   0.24600   0.65974   1.000
    C5      C    0.71800   0.25400   0.15974   1.000
    C5      C    0.28200   0.25400   0.34026   1.000
    C5      C    0.28200   0.74600   0.84026   1.000
    C5      C    0.71800   0.74600   0.65974   1.000
    C6      C    0.72335   0.79110   0.33182   1.000
    C6      C    0.72335   0.20890   0.83182   1.000
    C6      C    0.27665   0.20890   0.66818   1.000
    C6      C    0.77665   0.29110   0.16818   1.000
    C6      C    0.22335   0.29110   0.33182   1.000
    C6      C    0.22335   0.70890   0.83182   1.000
    C6      C    0.77665   0.70890   0.66818   1.000
    N1      N    0.55497   0.92912   0.41068   1.000
    N1      N    0.55497   0.07088   0.91068   1.000
    N1      N    0.44503   0.07088   0.58932   1.000
    N1      N    0.94503   0.42912   0.08932   1.000
    N1      N    0.05497   0.42912   0.41068   1.000
    N1      N    0.05497   0.57088   0.91068   1.000
    N1      N    0.94503   0.57088   0.58932   1.000
    N2      N    0.55076   0.90007   0.59273   1.000
    N2      N    0.55076   0.09993   0.09273   1.000
    N2      N    0.44924   0.09993   0.40727   1.000
    N2      N    0.94924   0.40007   0.90727   1.000
    N2      N    0.05076   0.40007   0.59273   1.000
    N2      N    0.05076   0.59993   0.09273   1.000
    N2      N    0.94924   0.59993   0.40727   1.000
    H1      H    0.62023   0.90108   0.22900   1.000
    H1      H    0.62023   0.09892   0.72900   1.000
    H1      H    0.37977   0.09892   0.77100   1.000
    H1      H    0.87977   0.40108   0.27100   1.000
    H1      H    0.12023   0.40108   0.22900   1.000
    H1      H    0.12023   0.59892   0.72900   1.000
    H1      H    0.87977   0.59892   0.77100   1.000
    H2      H    0.60784   0.81547   0.76544   1.000
    H2      H    0.60784   0.18453   0.26544   1.000
    H2      H    0.39216   0.18453   0.23456   1.000
    H2      H    0.89216   0.31547   0.73456   1.000
    H2      H    0.10784   0.31547   0.76544   1.000
    H2      H    0.10784   0.68453   0.26544   1.000
    H2      H    0.89216   0.68453   0.23456   1.000
    H5      H    0.80387   0.75674   0.23108   1.000
    H5      H    0.80387   0.24326   0.73108   1.000
    H5      H    0.19613   0.24326   0.76892   1.000
    H5      H    0.69613   0.25674   0.26892   1.000
    H5      H    0.30387   0.25674   0.23108   1.000
    H5      H    0.30387   0.74326   0.73108   1.000
    H5      H    0.69613   0.74326   0.76892   1.000
    H6      H    0.70514   0.81919   0.21687   1.000
    H6      H    0.70514   0.18081   0.71687   1.000
    H6      H    0.29486   0.18081   0.78313   1.000
    H6      H    0.79486   0.31919   0.28313   1.000
    H6      H    0.20514   0.31919   0.21687   1.000
    H6      H    0.20514   0.68081   0.71687   1.000
    H6      H    0.79486   0.68081   0.78313   1.000
