# CIF file generated by openbabel 2.4.90, see http://openbabel.sf.net
data_I
_chemical_name_common ''
_cell_length_a 24.8274
_cell_length_b 6.67473
_cell_length_c 7.14557
_cell_angle_alpha 90
_cell_angle_beta 92.5496
_cell_angle_gamma 90
_space_group_name_H-M_alt 'P 1'
_space_group_name_Hall 'P 1'
loop_
    _symmetry_equiv_pos_as_xyz
    x,y,z
loop_
    _atom_site_label
    _atom_site_type_symbol
    _atom_site_fract_x
    _atom_site_fract_y
    _atom_site_fract_z
    _atom_site_occupancy
    Co      Co   0.00000   0.45865   0.25000   1.000
    C1      C    0.39295   0.87311   0.83890   1.000
    C2      C    0.40102   0.73366   0.11778   1.000
    C3      C    0.36508   0.78698   0.97739   1.000
    C4      C    0.30521   0.75620   0.97561   1.000
    C5      C    0.21584   0.88100   0.90085   1.000
    C6      C    0.27105   0.88720   0.87647   1.000
    N1      N    0.44611   0.87302   0.89369   1.000
    N2      N    0.45110   0.78683   0.06605   1.000
    H1      H    0.37792   0.92434   0.72404   1.000
    H2      H    0.39261   0.67037   0.23194   1.000
    H5      H    0.19250   0.97053   0.83309   1.000
    H6      H    0.28544   0.98097   0.79204   1.000
    Co      Co   0.00000   0.54135   0.75000   1.000
    Co      Co   0.50000   0.95865   0.25000   1.000
    Co      Co   0.50000   0.04135   0.75000   1.000
    C1      C    0.60705   0.87311   0.66110   1.000
    C1      C    0.60705   0.12689   0.16110   1.000
    C1      C    0.39295   0.12689   0.33890   1.000
    C1      C    0.89295   0.37311   0.83890   1.000
    C1      C    0.10705   0.37311   0.66110   1.000
    C1      C    0.10705   0.62689   0.16110   1.000
    C1      C    0.89295   0.62689   0.33890   1.000
    C2      C    0.59898   0.73366   0.38222   1.000
    C2      C    0.59898   0.26634   0.88222   1.000
    C2      C    0.40102   0.26634   0.61778   1.000
    C2      C    0.90102   0.23366   0.11778   1.000
    C2      C    0.09898   0.23366   0.38222   1.000
    C2      C    0.09898   0.76634   0.88222   1.000
    C2      C    0.90102   0.76634   0.61778   1.000
    C3      C    0.63492   0.78698   0.52261   1.000
    C3      C    0.63492   0.21302   0.02261   1.000
    C3      C    0.36508   0.21302   0.47739   1.000
    C3      C    0.86508   0.28698   0.97739   1.000
    C3      C    0.13492   0.28698   0.52261   1.000
    C3      C    0.13492   0.71302   0.02261   1.000
    C3      C    0.86508   0.71302   0.47739   1.000
    C4      C    0.69479   0.75620   0.52439   1.000
    C4      C    0.69479   0.24380   0.02439   1.000
    C4      C    0.30521   0.24380   0.47561   1.000
    C4      C    0.80521   0.25620   0.97561   1.000
    C4      C    0.19479   0.25620   0.52439   1.000
    C4      C    0.19479   0.74380   0.02439   1.000
    C4      C    0.80521   0.74380   0.47561   1.000
    C5      C    0.78416   0.88100   0.59915   1.000
    C5      C    0.78416   0.11900   0.09915   1.000
    C5      C    0.21584   0.11900   0.40085   1.000
    C5      C    0.71584   0.38100   0.90085   1.000
    C5      C    0.28416   0.38100   0.59915   1.000
    C5      C    0.28416   0.61900   0.09915   1.000
    C5      C    0.71584   0.61900   0.40085   1.000
    C6      C    0.72895   0.88720   0.62353   1.000
    C6      C    0.72895   0.11280   0.12353   1.000
    C6      C    0.27105   0.11280   0.37647   1.000
    C6      C    0.77105   0.38720   0.87647   1.000
    C6      C    0.22895   0.38720   0.62353   1.000
    C6      C    0.22895   0.61280   0.12353   1.000
    C6      C    0.77105   0.61280   0.37647   1.000
    N1      N    0.55389   0.87302   0.60631   1.000
    N1      N    0.55389   0.12698   0.10631   1.000
    N1      N    0.44611   0.12698   0.39369   1.000
    N1      N    0.94611   0.37302   0.89369   1.000
    N1      N    0.05389   0.37302   0.60631   1.000
    N1      N    0.05389   0.62698   0.10631   1.000
    N1      N    0.94611   0.62698   0.39369   1.000
    N2      N    0.54890   0.78683   0.43395   1.000
    N2      N    0.54890   0.21317   0.93395   1.000
    N2      N    0.45110   0.21317   0.56605   1.000
    N2      N    0.95110   0.28683   0.06605   1.000
    N2      N    0.04890   0.28683   0.43395   1.000
    N2      N    0.04890   0.71317   0.93395   1.000
    N2      N    0.95110   0.71317   0.56605   1.000
    H1      H    0.62208   0.92434   0.77596   1.000
    H1      H    0.62208   0.07566   0.27596   1.000
    H1      H    0.37792   0.07566   0.22404   1.000
    H1      H    0.87792   0.42434   0.72404   1.000
    H1      H    0.12208   0.42434   0.77596   1.000
    H1      H    0.12208   0.57566   0.27596   1.000
    H1      H    0.87792   0.57566   0.22404   1.000
    H2      H    0.60739   0.67037   0.26806   1.000
    H2      H    0.60739   0.32963   0.76806   1.000
    H2      H    0.39261   0.32963   0.73194   1.000
    H2      H    0.89261   0.17037   0.23194   1.000
    H2      H    0.10739   0.17037   0.26806   1.000
    H2      H    0.10739   0.82963   0.76806   1.000
    H2      H    0.89261   0.82963   0.73194   1.000
    H5      H    0.80750   0.97053   0.66691   1.000
    H5      H    0.80750   0.02947   0.16691   1.000
    H5      H    0.19250   0.02947   0.33309   1.000
    H5      H    0.69250   0.47053   0.83309   1.000
    H5      H    0.30750   0.47053   0.66691   1.000
    H5      H    0.30750   0.52947   0.16691   1.000
    H5      H    0.69250   0.52947   0.33309   1.000
    H6      H    0.71456   0.98097   0.70796   1.000
    H6      H    0.71456   0.01903   0.20796   1.000
    H6      H    0.28544   0.01903   0.29204   1.000
    H6      H    0.78544   0.48097   0.79204   1.000
    H6      H    0.21456   0.48097   0.70796   1.000
    H6      H    0.21456   0.51903   0.20796   1.000
    H6      H    0.78544   0.51903   0.29204   1.000
